Circuit: * C:\Users\pig\Documents\ee308\lab1\output amplifier.asc

Warning: Multiple definitions of model "2scr375p" Type: BJT
Warning: Multiple definitions of model "bc857b" Type: BJT
Warning: Multiple definitions of model "bc847c" Type: BJT
Warning: Multiple definitions of model "bc847b" Type: BJT
WARNING: Node N003 is floating.
WARNING: Node N021 is floating.

WARNING: Less than two connections to node N003.  This node is used by C2.
WARNING: Less than two connections to node N021.  This node is used by C3.
Direct Newton iteration for .op point succeeded.
.step pos=0
.step pos=100
.step pos=200
.step pos=300
.step pos=400
.step pos=500
.step pos=600
.step pos=700
.step pos=800
.step pos=900
.step pos=1000


Measurement: v_peak
  step	MAX(v(out))	FROM	TO
     1	0.0780666	0	1e-007
     2	0.0695102	0	1e-007
     3	0.0616039	0	1e-007
     4	0.0543146	0	1e-007
     5	0.0477666	0	1e-007
     6	0.0418272	0	1e-007
     7	0.0365681	0	1e-007
     8	0.0319732	0	1e-007
     9	0.0279932	0	1e-007
    10	0.0246524	0	1e-007
    11	0.0219478	0	1e-007

Measurement: v_final
  step	AVG(v(out))	FROM	TO
     1	0.117843	2e-007	4e-007
     2	0.105527	2e-007	4e-007
     3	0.0937441	2e-007	4e-007
     4	0.0825964	2e-007	4e-007
     5	0.0720814	2e-007	4e-007
     6	0.0622059	2e-007	4e-007
     7	0.0529688	2e-007	4e-007
     8	0.0443728	2e-007	4e-007
     9	0.0364214	2e-007	4e-007
    10	0.0291161	2e-007	4e-007
    11	0.0224588	2e-007	4e-007

Measurement: v_initial
  step	AVG(v(out))	FROM	TO
     1	-0.0420598	8e-007	1e-006
     2	-0.0387872	8e-007	1e-006
     3	-0.0348407	8e-007	1e-006
     4	-0.0302241	8e-007	1e-006
     5	-0.0249417	8e-007	1e-006
     6	-0.0190002	8e-007	1e-006
     7	-0.0124096	8e-007	1e-006
     8	-0.00516491	8e-007	1e-006
     9	0.0027245	8e-007	1e-006
    10	0.0112514	8e-007	1e-006
    11	0.0204063	8e-007	1e-006

Measurement: overshoot
  step	(v_peak-v_final)/(v_final-v_initial)*100
     1	-24.8752
     2	-24.9569
     3	-24.9953
     4	-25.068
     5	-25.0608
     6	-25.095
     7	-25.0858
     8	-25.0305
     9	-25.0116
    10	-24.9859
    11	-24.8986

Measurement: avg_val
  step	AVG(v(out))	FROM	TO
     1	0.0215814	0	2e-006
     2	0.018677	0	2e-006
     3	0.0163876	0	2e-006
     4	0.0147404	0	2e-006
     5	0.0137365	0	2e-006
     6	0.013375	0	2e-006
     7	0.0136556	0	2e-006
     8	0.0145799	0	2e-006
     9	0.0161508	0	2e-006
    10	0.0183654	0	2e-006
    11	0.0212231	0	2e-006


Date: Tue Apr 21 19:38:16 2026
Total elapsed time: 0.415 seconds.

tnom = 27
temp = 27
method = modified trap
totiter = 2460
traniter = 2452
tranpoints = 1227
accept = 1201
rejected = 26
matrix size = 44
fillins = 36
solver = Normal
Matrix Compiler1: 4.62 KB object code size  0.5/0.3/[0.2]
Matrix Compiler2: 4.27 KB object code size  0.2/0.3/[0.2]

