Circuit: * C:\Users\pig\Documents\ee308\lab1\output amplifier.asc

Warning: Multiple definitions of model "2scr375p" Type: BJT
Warning: Multiple definitions of model "bc857b" Type: BJT
Warning: Multiple definitions of model "bc847c" Type: BJT
Warning: Multiple definitions of model "bc847b" Type: BJT
Direct Newton iteration for .op point succeeded.

Date: Sat Apr 18 18:11:59 2026
Total elapsed time: 0.076 seconds.

tnom = 27
temp = 27
method = modified trap
totiter = 7806
traniter = 7798
tranpoints = 3558
accept = 2822
rejected = 736
matrix size = 42
fillins = 44
solver = Normal
Matrix Compiler1: 4.94 KB object code size  0.8/0.5/[0.3]
Matrix Compiler2: 4.27 KB object code size  0.3/0.5/[0.2]

