Circuit: * C:\Users\pig\Desktop\ee308\lab1\output amplifier.asc

Warning: Multiple definitions of model "2scr375p" Type: BJT
Warning: Multiple definitions of model "bc857b" Type: BJT
Warning: Multiple definitions of model "bc847c" Type: BJT
Warning: Multiple definitions of model "bc847b" Type: BJT
Direct Newton iteration for .op point succeeded.

Date: Sat Apr 18 16:21:48 2026
Total elapsed time: 0.066 seconds.

tnom = 27
temp = 27
method = modified trap
totiter = 7071
traniter = 7063
tranpoints = 3175
accept = 2529
rejected = 646
matrix size = 42
fillins = 44
solver = Normal
Matrix Compiler1: 4.94 KB object code size  0.6/0.3/[0.2]
Matrix Compiler2: 4.27 KB object code size  0.2/0.3/[0.2]

