Circuit: * C:\Users\adrik\Documents\ee308\lab2\schmitt trigger.asc

Warning: Multiple definitions of model "2scr375p" Type: BJT
Warning: Multiple definitions of model "bc857b" Type: BJT
Warning: Multiple definitions of model "bc847c" Type: BJT
Warning: Multiple definitions of model "bc847b" Type: BJT
Direct Newton iteration failed to find .op point.  (Use ".option noopiter" to skip.)
Starting Gmin stepping
Gmin = 10
Gmin = 1.07374
Gmin = 0.115292
Gmin = 0.0123794
Gmin = 0.00132923
Gmin = 0.000142725
Gmin = 1.5325e-05
Gmin = 1.6455e-06
Gmin = 1.76685e-07
Gmin = 1.89714e-08
Gmin = 2.03704e-09
Gmin = 2.18725e-10
Gmin = 2.34854e-11
Gmin = 2.52173e-12
Gmin = 2.70769e-13
Gmin = 0
Gmin stepping succeeded in finding the operating point.


Date: Wed Apr 22 20:44:29 2026
Total elapsed time: 0.146 seconds.

tnom = 27
temp = 27
method = modified trap
totiter = 10340
traniter = 9883
tranpoints = 3648
accept = 2944
rejected = 704
matrix size = 42
fillins = 38
solver = Normal
Avg thread counts: 1.1/1.4/1.3/1.1
Matrix Compiler1: 4.83 KB object code size  1.0/0.7/[0.4]
Matrix Compiler2: 4.26 KB object code size  0.4/0.4/[0.3]

