Circuit: * C:\Users\pig\Documents\ee308\lab2\schmitt trigger.asc

Warning: Multiple definitions of model "2scr375p" Type: BJT
Warning: Multiple definitions of model "bc857b" Type: BJT
Warning: Multiple definitions of model "bc847c" Type: BJT
Warning: Multiple definitions of model "bc847b" Type: BJT
Direct Newton iteration for .op point succeeded.

Date: Wed Apr 22 17:19:16 2026
Total elapsed time: 0.087 seconds.

tnom = 27
temp = 27
method = modified trap
totiter = 12602
traniter = 12580
tranpoints = 4445
accept = 3436
rejected = 1009
matrix size = 46
fillins = 40
solver = Normal
Matrix Compiler1: 5.12 KB object code size  0.9/0.5/[0.3]
Matrix Compiler2: 4.57 KB object code size  0.4/0.6/[0.3]

