Circuit: * C:\Users\adrik\Documents\ee308\lab2\schmitt trigger.asc

Warning: Multiple definitions of model "2scr375p" Type: BJT
Warning: Multiple definitions of model "bc857b" Type: BJT
Warning: Multiple definitions of model "bc847c" Type: BJT
Warning: Multiple definitions of model "bc847b" Type: BJT
WARNING: Node N009 is floating.

WARNING: Less than two connections to node out.  This node is used by r17.
Direct Newton iteration for .op point succeeded.

Date: Tue Apr 21 19:44:04 2026
Total elapsed time: 0.070 seconds.

tnom = 27
temp = 27
method = modified trap
totiter = 2880
traniter = 2871
tranpoints = 1414
accept = 1337
rejected = 77
matrix size = 55
fillins = 48
solver = Normal
Avg thread counts: 1.5/2.0/2.0/1.5
Matrix Compiler1: 5.79 KB object code size  1.0/0.8/[0.6]
Matrix Compiler2: off  [0.4]/0.7/0.5

