Circuit: * C:\Users\adrik\Documents\ee308\lab1 - Copy\output amplifier.asc

Warning: Multiple definitions of model "2scr375p" Type: BJT
Warning: Multiple definitions of model "bc857b" Type: BJT
Warning: Multiple definitions of model "bc847c" Type: BJT
Warning: Multiple definitions of model "bc847b" Type: BJT
WARNING: Less than two connections to node nc_01.  This node is used by r27.
WARNING: Less than two connections to node nc_02.  This node is used by r28.
Direct Newton iteration for .op point succeeded.



Date: Thu Apr 16 11:50:35 2026
Total elapsed time: 0.124 seconds.

tnom = 27
temp = 27
method = trap
totiter = 8
traniter = 0
tranpoints = 0
accept = 0
rejected = 0
matrix size = 53
fillins = 50
solver = Normal
Avg thread counts: 16.0/0.0/16.0/1.2
Matrix Compiler1:     337 opcodes
Matrix Compiler2: 5.40 KB object code size
