Circuit: * C:\Users\pig\Documents\ee308\lab1 - Copy\output amplifier.asc

Warning: Multiple definitions of model "2scr375p" Type: BJT
Warning: Multiple definitions of model "bc857b" Type: BJT
Warning: Multiple definitions of model "bc847c" Type: BJT
Warning: Multiple definitions of model "bc847b" Type: BJT
WARNING: Less than two connections to node NC_01.  This node is used by R27.
WARNING: Less than two connections to node NC_02.  This node is used by R28.
Direct Newton iteration for .op point succeeded.



Date: Wed Apr 15 18:08:32 2026
Total elapsed time: 0.123 seconds.

tnom = 27
temp = 27
method = trap
totiter = 8
traniter = 0
tranpoints = 0
accept = 0
rejected = 0
matrix size = 54
fillins = 52
solver = Normal
Matrix Compiler1:     347 opcodes
Matrix Compiler2: 5.50 KB object code size
